# File generated by Flopy version 3.10.0 on 03/30/2026 at 14:30:31.
BEGIN options
END options

BEGIN dimensions
  MAXBOUND  200
END dimensions

BEGIN period  1
  1 1 1.00000000E+01
  2 1 1.00000000E+01
  3 1 1.00000000E+01
  4 1 1.00000000E+01
  5 1 1.00000000E+01
  6 1 1.00000000E+01
  7 1 1.00000000E+01
  8 1 1.00000000E+01
  9 1 1.00000000E+01
  10 1 1.00000000E+01
  1 10 1.00000000E+00
  2 10 1.00000000E+00
  3 10 1.00000000E+00
  4 10 1.00000000E+00
  5 10 1.00000000E+00
  6 10 1.00000000E+00
  7 10 1.00000000E+00
  8 10 1.00000000E+00
  9 10 1.00000000E+00
  10 10 1.00000000E+00
  1 11 1.00000000E+01
  2 11 1.00000000E+01
  3 11 1.00000000E+01
  4 11 1.00000000E+01
  5 11 1.00000000E+01
  6 11 1.00000000E+01
  7 11 1.00000000E+01
  8 11 1.00000000E+01
  9 11 1.00000000E+01
  10 11 1.00000000E+01
  1 20 1.00000000E+00
  2 20 1.00000000E+00
  3 20 1.00000000E+00
  4 20 1.00000000E+00
  5 20 1.00000000E+00
  6 20 1.00000000E+00
  7 20 1.00000000E+00
  8 20 1.00000000E+00
  9 20 1.00000000E+00
  10 20 1.00000000E+00
  1 21 1.00000000E+01
  2 21 1.00000000E+01
  3 21 1.00000000E+01
  4 21 1.00000000E+01
  5 21 1.00000000E+01
  6 21 1.00000000E+01
  7 21 1.00000000E+01
  8 21 1.00000000E+01
  9 21 1.00000000E+01
  10 21 1.00000000E+01
  1 30 1.00000000E+00
  2 30 1.00000000E+00
  3 30 1.00000000E+00
  4 30 1.00000000E+00
  5 30 1.00000000E+00
  6 30 1.00000000E+00
  7 30 1.00000000E+00
  8 30 1.00000000E+00
  9 30 1.00000000E+00
  10 30 1.00000000E+00
  1 31 1.00000000E+01
  2 31 1.00000000E+01
  3 31 1.00000000E+01
  4 31 1.00000000E+01
  5 31 1.00000000E+01
  6 31 1.00000000E+01
  7 31 1.00000000E+01
  8 31 1.00000000E+01
  9 31 1.00000000E+01
  10 31 1.00000000E+01
  1 64 1.00000000E+00
  2 64 1.00000000E+00
  3 64 1.00000000E+00
  4 64 1.00000000E+00
  5 64 1.00000000E+00
  6 64 1.00000000E+00
  7 64 1.00000000E+00
  8 64 1.00000000E+00
  9 64 1.00000000E+00
  10 64 1.00000000E+00
  1 65 1.00000000E+01
  2 65 1.00000000E+01
  3 65 1.00000000E+01
  4 65 1.00000000E+01
  5 65 1.00000000E+01
  6 65 1.00000000E+01
  7 65 1.00000000E+01
  8 65 1.00000000E+01
  9 65 1.00000000E+01
  10 65 1.00000000E+01
  1 218 1.00000000E+00
  2 218 1.00000000E+00
  3 218 1.00000000E+00
  4 218 1.00000000E+00
  5 218 1.00000000E+00
  6 218 1.00000000E+00
  7 218 1.00000000E+00
  8 218 1.00000000E+00
  9 218 1.00000000E+00
  10 218 1.00000000E+00
  1 219 1.00000000E+01
  2 219 1.00000000E+01
  3 219 1.00000000E+01
  4 219 1.00000000E+01
  5 219 1.00000000E+01
  6 219 1.00000000E+01
  7 219 1.00000000E+01
  8 219 1.00000000E+01
  9 219 1.00000000E+01
  10 219 1.00000000E+01
  1 372 1.00000000E+00
  2 372 1.00000000E+00
  3 372 1.00000000E+00
  4 372 1.00000000E+00
  5 372 1.00000000E+00
  6 372 1.00000000E+00
  7 372 1.00000000E+00
  8 372 1.00000000E+00
  9 372 1.00000000E+00
  10 372 1.00000000E+00
  1 373 1.00000000E+01
  2 373 1.00000000E+01
  3 373 1.00000000E+01
  4 373 1.00000000E+01
  5 373 1.00000000E+01
  6 373 1.00000000E+01
  7 373 1.00000000E+01
  8 373 1.00000000E+01
  9 373 1.00000000E+01
  10 373 1.00000000E+01
  1 406 1.00000000E+00
  2 406 1.00000000E+00
  3 406 1.00000000E+00
  4 406 1.00000000E+00
  5 406 1.00000000E+00
  6 406 1.00000000E+00
  7 406 1.00000000E+00
  8 406 1.00000000E+00
  9 406 1.00000000E+00
  10 406 1.00000000E+00
  1 407 1.00000000E+01
  2 407 1.00000000E+01
  3 407 1.00000000E+01
  4 407 1.00000000E+01
  5 407 1.00000000E+01
  6 407 1.00000000E+01
  7 407 1.00000000E+01
  8 407 1.00000000E+01
  9 407 1.00000000E+01
  10 407 1.00000000E+01
  1 416 1.00000000E+00
  2 416 1.00000000E+00
  3 416 1.00000000E+00
  4 416 1.00000000E+00
  5 416 1.00000000E+00
  6 416 1.00000000E+00
  7 416 1.00000000E+00
  8 416 1.00000000E+00
  9 416 1.00000000E+00
  10 416 1.00000000E+00
  1 417 1.00000000E+01
  2 417 1.00000000E+01
  3 417 1.00000000E+01
  4 417 1.00000000E+01
  5 417 1.00000000E+01
  6 417 1.00000000E+01
  7 417 1.00000000E+01
  8 417 1.00000000E+01
  9 417 1.00000000E+01
  10 417 1.00000000E+01
  1 426 1.00000000E+00
  2 426 1.00000000E+00
  3 426 1.00000000E+00
  4 426 1.00000000E+00
  5 426 1.00000000E+00
  6 426 1.00000000E+00
  7 426 1.00000000E+00
  8 426 1.00000000E+00
  9 426 1.00000000E+00
  10 426 1.00000000E+00
  1 427 1.00000000E+01
  2 427 1.00000000E+01
  3 427 1.00000000E+01
  4 427 1.00000000E+01
  5 427 1.00000000E+01
  6 427 1.00000000E+01
  7 427 1.00000000E+01
  8 427 1.00000000E+01
  9 427 1.00000000E+01
  10 427 1.00000000E+01
  1 436 1.00000000E+00
  2 436 1.00000000E+00
  3 436 1.00000000E+00
  4 436 1.00000000E+00
  5 436 1.00000000E+00
  6 436 1.00000000E+00
  7 436 1.00000000E+00
  8 436 1.00000000E+00
  9 436 1.00000000E+00
  10 436 1.00000000E+00
END period  1

