# File generated by Flopy version 3.10.0 on 03/30/2026 at 14:30:31.
BEGIN options
  SAVE_FLOWS
END options

BEGIN packages
  DISV6  cube.disv  disv
  IC6  cube.ic  ic
  NPF6  cube.npf  npf
  CHD6  cube.chd  chd_0
  OC6  cube.oc  oc
END packages

