# File generated by Flopy version 3.10.0 on 03/30/2026 at 14:30:31.
BEGIN options
  BUDGET  FILEOUT  cube.cbb
  HEAD  FILEOUT  cube.hds
END options

BEGIN period  1
  SAVE  HEAD  ALL
  SAVE  BUDGET  ALL
END period  1

