# File generated by Flopy version 3.10.0 on 03/30/2026 at 14:30:31.
BEGIN options
END options

BEGIN dimensions
  NLAY  10
  NCPL  436
  NVERT  493
END dimensions

BEGIN griddata
  top
    INTERNAL  FACTOR  1.0
         0.00000000       0.00000000       0.00000000       0.00000000       0.00000000       0.00000000       0.00000000       0.00000000       0.00000000       0.00000000       0.00000000       0.00000000       0.00000000       0.00000000       0.00000000       0.00000000       0.00000000       0.00000000       0.00000000       0.00000000
         0.00000000       0.00000000       0.00000000       0.00000000       0.00000000       0.00000000       0.00000000       0.00000000       0.00000000       0.00000000       0.00000000       0.00000000       0.00000000       0.00000000       0.00000000       0.00000000       0.00000000       0.00000000       0.00000000       0.00000000
         0.00000000       0.00000000       0.00000000       0.00000000       0.00000000       0.00000000       0.00000000       0.00000000       0.00000000       0.00000000       0.00000000       0.00000000       0.00000000       0.00000000       0.00000000       0.00000000       0.00000000       0.00000000       0.00000000       0.00000000
         0.00000000       0.00000000       0.00000000       0.00000000       0.00000000       0.00000000       0.00000000       0.00000000       0.00000000       0.00000000       0.00000000       0.00000000       0.00000000       0.00000000       0.00000000       0.00000000       0.00000000       0.00000000       0.00000000       0.00000000
         0.00000000       0.00000000       0.00000000       0.00000000       0.00000000       0.00000000       0.00000000       0.00000000       0.00000000       0.00000000       0.00000000       0.00000000       0.00000000       0.00000000       0.00000000       0.00000000       0.00000000       0.00000000       0.00000000       0.00000000
         0.00000000       0.00000000       0.00000000       0.00000000       0.00000000       0.00000000       0.00000000       0.00000000       0.00000000       0.00000000       0.00000000       0.00000000       0.00000000       0.00000000       0.00000000       0.00000000       0.00000000       0.00000000       0.00000000       0.00000000
         0.00000000       0.00000000       0.00000000       0.00000000       0.00000000       0.00000000       0.00000000       0.00000000       0.00000000       0.00000000       0.00000000       0.00000000       0.00000000       0.00000000       0.00000000       0.00000000       0.00000000       0.00000000       0.00000000       0.00000000
         0.00000000       0.00000000       0.00000000       0.00000000       0.00000000       0.00000000       0.00000000       0.00000000       0.00000000       0.00000000       0.00000000       0.00000000       0.00000000       0.00000000       0.00000000       0.00000000       0.00000000       0.00000000       0.00000000       0.00000000
         0.00000000       0.00000000       0.00000000       0.00000000       0.00000000       0.00000000       0.00000000       0.00000000       0.00000000       0.00000000       0.00000000       0.00000000       0.00000000       0.00000000       0.00000000       0.00000000       0.00000000       0.00000000       0.00000000       0.00000000
         0.00000000       0.00000000       0.00000000       0.00000000       0.00000000       0.00000000       0.00000000       0.00000000       0.00000000       0.00000000       0.00000000       0.00000000       0.00000000       0.00000000       0.00000000       0.00000000       0.00000000       0.00000000       0.00000000       0.00000000
         0.00000000       0.00000000       0.00000000       0.00000000       0.00000000       0.00000000       0.00000000       0.00000000       0.00000000       0.00000000       0.00000000       0.00000000       0.00000000       0.00000000       0.00000000       0.00000000       0.00000000       0.00000000       0.00000000       0.00000000
         0.00000000       0.00000000       0.00000000       0.00000000       0.00000000       0.00000000       0.00000000       0.00000000       0.00000000       0.00000000       0.00000000       0.00000000       0.00000000       0.00000000       0.00000000       0.00000000       0.00000000       0.00000000       0.00000000       0.00000000
         0.00000000       0.00000000       0.00000000       0.00000000       0.00000000       0.00000000       0.00000000       0.00000000       0.00000000       0.00000000       0.00000000       0.00000000       0.00000000       0.00000000       0.00000000       0.00000000       0.00000000       0.00000000       0.00000000       0.00000000
         0.00000000       0.00000000       0.00000000       0.00000000       0.00000000       0.00000000       0.00000000       0.00000000       0.00000000       0.00000000       0.00000000       0.00000000       0.00000000       0.00000000       0.00000000       0.00000000       0.00000000       0.00000000       0.00000000       0.00000000
         0.00000000       0.00000000       0.00000000       0.00000000       0.00000000       0.00000000       0.00000000       0.00000000       0.00000000       0.00000000       0.00000000       0.00000000       0.00000000       0.00000000       0.00000000       0.00000000       0.00000000       0.00000000       0.00000000       0.00000000
         0.00000000       0.00000000       0.00000000       0.00000000       0.00000000       0.00000000       0.00000000       0.00000000       0.00000000       0.00000000       0.00000000       0.00000000       0.00000000       0.00000000       0.00000000       0.00000000       0.00000000       0.00000000       0.00000000       0.00000000
         0.00000000       0.00000000       0.00000000       0.00000000       0.00000000       0.00000000       0.00000000       0.00000000       0.00000000       0.00000000       0.00000000       0.00000000       0.00000000       0.00000000       0.00000000       0.00000000       0.00000000       0.00000000       0.00000000       0.00000000
         0.00000000       0.00000000       0.00000000       0.00000000       0.00000000       0.00000000       0.00000000       0.00000000       0.00000000       0.00000000       0.00000000       0.00000000       0.00000000       0.00000000       0.00000000       0.00000000       0.00000000       0.00000000       0.00000000       0.00000000
         0.00000000       0.00000000       0.00000000       0.00000000       0.00000000       0.00000000       0.00000000       0.00000000       0.00000000       0.00000000       0.00000000       0.00000000       0.00000000       0.00000000       0.00000000       0.00000000       0.00000000       0.00000000       0.00000000       0.00000000
         0.00000000       0.00000000       0.00000000       0.00000000       0.00000000       0.00000000       0.00000000       0.00000000       0.00000000       0.00000000       0.00000000       0.00000000       0.00000000       0.00000000       0.00000000       0.00000000       0.00000000       0.00000000       0.00000000       0.00000000
         0.00000000       0.00000000       0.00000000       0.00000000       0.00000000       0.00000000       0.00000000       0.00000000       0.00000000       0.00000000       0.00000000       0.00000000       0.00000000       0.00000000       0.00000000       0.00000000       0.00000000       0.00000000       0.00000000       0.00000000
         0.00000000       0.00000000       0.00000000       0.00000000       0.00000000       0.00000000       0.00000000       0.00000000       0.00000000       0.00000000       0.00000000       0.00000000       0.00000000       0.00000000       0.00000000       0.00000000
  botm  LAYERED
    INTERNAL  FACTOR  1.0
         -10.00000000     -10.00000000     -10.00000000     -10.00000000     -10.00000000     -10.00000000     -10.00000000     -10.00000000     -10.00000000     -10.00000000     -10.00000000     -10.00000000     -10.00000000     -10.00000000     -10.00000000     -10.00000000     -10.00000000     -10.00000000     -10.00000000     -10.00000000
         -10.00000000     -10.00000000     -10.00000000     -10.00000000     -10.00000000     -10.00000000     -10.00000000     -10.00000000     -10.00000000     -10.00000000     -10.00000000     -10.00000000     -10.00000000     -10.00000000     -10.00000000     -10.00000000     -10.00000000     -10.00000000     -10.00000000     -10.00000000
         -10.00000000     -10.00000000     -10.00000000     -10.00000000     -10.00000000     -10.00000000     -10.00000000     -10.00000000     -10.00000000     -10.00000000     -10.00000000     -10.00000000     -10.00000000     -10.00000000     -10.00000000     -10.00000000     -10.00000000     -10.00000000     -10.00000000     -10.00000000
         -10.00000000     -10.00000000     -10.00000000     -10.00000000     -10.00000000     -10.00000000     -10.00000000     -10.00000000     -10.00000000     -10.00000000     -10.00000000     -10.00000000     -10.00000000     -10.00000000     -10.00000000     -10.00000000     -10.00000000     -10.00000000     -10.00000000     -10.00000000
         -10.00000000     -10.00000000     -10.00000000     -10.00000000     -10.00000000     -10.00000000     -10.00000000     -10.00000000     -10.00000000     -10.00000000     -10.00000000     -10.00000000     -10.00000000     -10.00000000     -10.00000000     -10.00000000     -10.00000000     -10.00000000     -10.00000000     -10.00000000
         -10.00000000     -10.00000000     -10.00000000     -10.00000000     -10.00000000     -10.00000000     -10.00000000     -10.00000000     -10.00000000     -10.00000000     -10.00000000     -10.00000000     -10.00000000     -10.00000000     -10.00000000     -10.00000000     -10.00000000     -10.00000000     -10.00000000     -10.00000000
         -10.00000000     -10.00000000     -10.00000000     -10.00000000     -10.00000000     -10.00000000     -10.00000000     -10.00000000     -10.00000000     -10.00000000     -10.00000000     -10.00000000     -10.00000000     -10.00000000     -10.00000000     -10.00000000     -10.00000000     -10.00000000     -10.00000000     -10.00000000
         -10.00000000     -10.00000000     -10.00000000     -10.00000000     -10.00000000     -10.00000000     -10.00000000     -10.00000000     -10.00000000     -10.00000000     -10.00000000     -10.00000000     -10.00000000     -10.00000000     -10.00000000     -10.00000000     -10.00000000     -10.00000000     -10.00000000     -10.00000000
         -10.00000000     -10.00000000     -10.00000000     -10.00000000     -10.00000000     -10.00000000     -10.00000000     -10.00000000     -10.00000000     -10.00000000     -10.00000000     -10.00000000     -10.00000000     -10.00000000     -10.00000000     -10.00000000     -10.00000000     -10.00000000     -10.00000000     -10.00000000
         -10.00000000     -10.00000000     -10.00000000     -10.00000000     -10.00000000     -10.00000000     -10.00000000     -10.00000000     -10.00000000     -10.00000000     -10.00000000     -10.00000000     -10.00000000     -10.00000000     -10.00000000     -10.00000000     -10.00000000     -10.00000000     -10.00000000     -10.00000000
         -10.00000000     -10.00000000     -10.00000000     -10.00000000     -10.00000000     -10.00000000     -10.00000000     -10.00000000     -10.00000000     -10.00000000     -10.00000000     -10.00000000     -10.00000000     -10.00000000     -10.00000000     -10.00000000     -10.00000000     -10.00000000     -10.00000000     -10.00000000
         -10.00000000     -10.00000000     -10.00000000     -10.00000000     -10.00000000     -10.00000000     -10.00000000     -10.00000000     -10.00000000     -10.00000000     -10.00000000     -10.00000000     -10.00000000     -10.00000000     -10.00000000     -10.00000000     -10.00000000     -10.00000000     -10.00000000     -10.00000000
         -10.00000000     -10.00000000     -10.00000000     -10.00000000     -10.00000000     -10.00000000     -10.00000000     -10.00000000     -10.00000000     -10.00000000     -10.00000000     -10.00000000     -10.00000000     -10.00000000     -10.00000000     -10.00000000     -10.00000000     -10.00000000     -10.00000000     -10.00000000
         -10.00000000     -10.00000000     -10.00000000     -10.00000000     -10.00000000     -10.00000000     -10.00000000     -10.00000000     -10.00000000     -10.00000000     -10.00000000     -10.00000000     -10.00000000     -10.00000000     -10.00000000     -10.00000000     -10.00000000     -10.00000000     -10.00000000     -10.00000000
         -10.00000000     -10.00000000     -10.00000000     -10.00000000     -10.00000000     -10.00000000     -10.00000000     -10.00000000     -10.00000000     -10.00000000     -10.00000000     -10.00000000     -10.00000000     -10.00000000     -10.00000000     -10.00000000     -10.00000000     -10.00000000     -10.00000000     -10.00000000
         -10.00000000     -10.00000000     -10.00000000     -10.00000000     -10.00000000     -10.00000000     -10.00000000     -10.00000000     -10.00000000     -10.00000000     -10.00000000     -10.00000000     -10.00000000     -10.00000000     -10.00000000     -10.00000000     -10.00000000     -10.00000000     -10.00000000     -10.00000000
         -10.00000000     -10.00000000     -10.00000000     -10.00000000     -10.00000000     -10.00000000     -10.00000000     -10.00000000     -10.00000000     -10.00000000     -10.00000000     -10.00000000     -10.00000000     -10.00000000     -10.00000000     -10.00000000     -10.00000000     -10.00000000     -10.00000000     -10.00000000
         -10.00000000     -10.00000000     -10.00000000     -10.00000000     -10.00000000     -10.00000000     -10.00000000     -10.00000000     -10.00000000     -10.00000000     -10.00000000     -10.00000000     -10.00000000     -10.00000000     -10.00000000     -10.00000000     -10.00000000     -10.00000000     -10.00000000     -10.00000000
         -10.00000000     -10.00000000     -10.00000000     -10.00000000     -10.00000000     -10.00000000     -10.00000000     -10.00000000     -10.00000000     -10.00000000     -10.00000000     -10.00000000     -10.00000000     -10.00000000     -10.00000000     -10.00000000     -10.00000000     -10.00000000     -10.00000000     -10.00000000
         -10.00000000     -10.00000000     -10.00000000     -10.00000000     -10.00000000     -10.00000000     -10.00000000     -10.00000000     -10.00000000     -10.00000000     -10.00000000     -10.00000000     -10.00000000     -10.00000000     -10.00000000     -10.00000000     -10.00000000     -10.00000000     -10.00000000     -10.00000000
         -10.00000000     -10.00000000     -10.00000000     -10.00000000     -10.00000000     -10.00000000     -10.00000000     -10.00000000     -10.00000000     -10.00000000     -10.00000000     -10.00000000     -10.00000000     -10.00000000     -10.00000000     -10.00000000     -10.00000000     -10.00000000     -10.00000000     -10.00000000
         -10.00000000     -10.00000000     -10.00000000     -10.00000000     -10.00000000     -10.00000000     -10.00000000     -10.00000000     -10.00000000     -10.00000000     -10.00000000     -10.00000000     -10.00000000     -10.00000000     -10.00000000     -10.00000000
    INTERNAL  FACTOR  1.0
         -20.00000000     -20.00000000     -20.00000000     -20.00000000     -20.00000000     -20.00000000     -20.00000000     -20.00000000     -20.00000000     -20.00000000     -20.00000000     -20.00000000     -20.00000000     -20.00000000     -20.00000000     -20.00000000     -20.00000000     -20.00000000     -20.00000000     -20.00000000
         -20.00000000     -20.00000000     -20.00000000     -20.00000000     -20.00000000     -20.00000000     -20.00000000     -20.00000000     -20.00000000     -20.00000000     -20.00000000     -20.00000000     -20.00000000     -20.00000000     -20.00000000     -20.00000000     -20.00000000     -20.00000000     -20.00000000     -20.00000000
         -20.00000000     -20.00000000     -20.00000000     -20.00000000     -20.00000000     -20.00000000     -20.00000000     -20.00000000     -20.00000000     -20.00000000     -20.00000000     -20.00000000     -20.00000000     -20.00000000     -20.00000000     -20.00000000     -20.00000000     -20.00000000     -20.00000000     -20.00000000
         -20.00000000     -20.00000000     -20.00000000     -20.00000000     -20.00000000     -20.00000000     -20.00000000     -20.00000000     -20.00000000     -20.00000000     -20.00000000     -20.00000000     -20.00000000     -20.00000000     -20.00000000     -20.00000000     -20.00000000     -20.00000000     -20.00000000     -20.00000000
         -20.00000000     -20.00000000     -20.00000000     -20.00000000     -20.00000000     -20.00000000     -20.00000000     -20.00000000     -20.00000000     -20.00000000     -20.00000000     -20.00000000     -20.00000000     -20.00000000     -20.00000000     -20.00000000     -20.00000000     -20.00000000     -20.00000000     -20.00000000
         -20.00000000     -20.00000000     -20.00000000     -20.00000000     -20.00000000     -20.00000000     -20.00000000     -20.00000000     -20.00000000     -20.00000000     -20.00000000     -20.00000000     -20.00000000     -20.00000000     -20.00000000     -20.00000000     -20.00000000     -20.00000000     -20.00000000     -20.00000000
         -20.00000000     -20.00000000     -20.00000000     -20.00000000     -20.00000000     -20.00000000     -20.00000000     -20.00000000     -20.00000000     -20.00000000     -20.00000000     -20.00000000     -20.00000000     -20.00000000     -20.00000000     -20.00000000     -20.00000000     -20.00000000     -20.00000000     -20.00000000
         -20.00000000     -20.00000000     -20.00000000     -20.00000000     -20.00000000     -20.00000000     -20.00000000     -20.00000000     -20.00000000     -20.00000000     -20.00000000     -20.00000000     -20.00000000     -20.00000000     -20.00000000     -20.00000000     -20.00000000     -20.00000000     -20.00000000     -20.00000000
         -20.00000000     -20.00000000     -20.00000000     -20.00000000     -20.00000000     -20.00000000     -20.00000000     -20.00000000     -20.00000000     -20.00000000     -20.00000000     -20.00000000     -20.00000000     -20.00000000     -20.00000000     -20.00000000     -20.00000000     -20.00000000     -20.00000000     -20.00000000
         -20.00000000     -20.00000000     -20.00000000     -20.00000000     -20.00000000     -20.00000000     -20.00000000     -20.00000000     -20.00000000     -20.00000000     -20.00000000     -20.00000000     -20.00000000     -20.00000000     -20.00000000     -20.00000000     -20.00000000     -20.00000000     -20.00000000     -20.00000000
         -20.00000000     -20.00000000     -20.00000000     -20.00000000     -20.00000000     -20.00000000     -20.00000000     -20.00000000     -20.00000000     -20.00000000     -20.00000000     -20.00000000     -20.00000000     -20.00000000     -20.00000000     -20.00000000     -20.00000000     -20.00000000     -20.00000000     -20.00000000
         -20.00000000     -20.00000000     -20.00000000     -20.00000000     -20.00000000     -20.00000000     -20.00000000     -20.00000000     -20.00000000     -20.00000000     -20.00000000     -20.00000000     -20.00000000     -20.00000000     -20.00000000     -20.00000000     -20.00000000     -20.00000000     -20.00000000     -20.00000000
         -20.00000000     -20.00000000     -20.00000000     -20.00000000     -20.00000000     -20.00000000     -20.00000000     -20.00000000     -20.00000000     -20.00000000     -20.00000000     -20.00000000     -20.00000000     -20.00000000     -20.00000000     -20.00000000     -20.00000000     -20.00000000     -20.00000000     -20.00000000
         -20.00000000     -20.00000000     -20.00000000     -20.00000000     -20.00000000     -20.00000000     -20.00000000     -20.00000000     -20.00000000     -20.00000000     -20.00000000     -20.00000000     -20.00000000     -20.00000000     -20.00000000     -20.00000000     -20.00000000     -20.00000000     -20.00000000     -20.00000000
         -20.00000000     -20.00000000     -20.00000000     -20.00000000     -20.00000000     -20.00000000     -20.00000000     -20.00000000     -20.00000000     -20.00000000     -20.00000000     -20.00000000     -20.00000000     -20.00000000     -20.00000000     -20.00000000     -20.00000000     -20.00000000     -20.00000000     -20.00000000
         -20.00000000     -20.00000000     -20.00000000     -20.00000000     -20.00000000     -20.00000000     -20.00000000     -20.00000000     -20.00000000     -20.00000000     -20.00000000     -20.00000000     -20.00000000     -20.00000000     -20.00000000     -20.00000000     -20.00000000     -20.00000000     -20.00000000     -20.00000000
         -20.00000000     -20.00000000     -20.00000000     -20.00000000     -20.00000000     -20.00000000     -20.00000000     -20.00000000     -20.00000000     -20.00000000     -20.00000000     -20.00000000     -20.00000000     -20.00000000     -20.00000000     -20.00000000     -20.00000000     -20.00000000     -20.00000000     -20.00000000
         -20.00000000     -20.00000000     -20.00000000     -20.00000000     -20.00000000     -20.00000000     -20.00000000     -20.00000000     -20.00000000     -20.00000000     -20.00000000     -20.00000000     -20.00000000     -20.00000000     -20.00000000     -20.00000000     -20.00000000     -20.00000000     -20.00000000     -20.00000000
         -20.00000000     -20.00000000     -20.00000000     -20.00000000     -20.00000000     -20.00000000     -20.00000000     -20.00000000     -20.00000000     -20.00000000     -20.00000000     -20.00000000     -20.00000000     -20.00000000     -20.00000000     -20.00000000     -20.00000000     -20.00000000     -20.00000000     -20.00000000
         -20.00000000     -20.00000000     -20.00000000     -20.00000000     -20.00000000     -20.00000000     -20.00000000     -20.00000000     -20.00000000     -20.00000000     -20.00000000     -20.00000000     -20.00000000     -20.00000000     -20.00000000     -20.00000000     -20.00000000     -20.00000000     -20.00000000     -20.00000000
         -20.00000000     -20.00000000     -20.00000000     -20.00000000     -20.00000000     -20.00000000     -20.00000000     -20.00000000     -20.00000000     -20.00000000     -20.00000000     -20.00000000     -20.00000000     -20.00000000     -20.00000000     -20.00000000     -20.00000000     -20.00000000     -20.00000000     -20.00000000
         -20.00000000     -20.00000000     -20.00000000     -20.00000000     -20.00000000     -20.00000000     -20.00000000     -20.00000000     -20.00000000     -20.00000000     -20.00000000     -20.00000000     -20.00000000     -20.00000000     -20.00000000     -20.00000000
    INTERNAL  FACTOR  1.0
         -30.00000000     -30.00000000     -30.00000000     -30.00000000     -30.00000000     -30.00000000     -30.00000000     -30.00000000     -30.00000000     -30.00000000     -30.00000000     -30.00000000     -30.00000000     -30.00000000     -30.00000000     -30.00000000     -30.00000000     -30.00000000     -30.00000000     -30.00000000
         -30.00000000     -30.00000000     -30.00000000     -30.00000000     -30.00000000     -30.00000000     -30.00000000     -30.00000000     -30.00000000     -30.00000000     -30.00000000     -30.00000000     -30.00000000     -30.00000000     -30.00000000     -30.00000000     -30.00000000     -30.00000000     -30.00000000     -30.00000000
         -30.00000000     -30.00000000     -30.00000000     -30.00000000     -30.00000000     -30.00000000     -30.00000000     -30.00000000     -30.00000000     -30.00000000     -30.00000000     -30.00000000     -30.00000000     -30.00000000     -30.00000000     -30.00000000     -30.00000000     -30.00000000     -30.00000000     -30.00000000
         -30.00000000     -30.00000000     -30.00000000     -30.00000000     -30.00000000     -30.00000000     -30.00000000     -30.00000000     -30.00000000     -30.00000000     -30.00000000     -30.00000000     -30.00000000     -30.00000000     -30.00000000     -30.00000000     -30.00000000     -30.00000000     -30.00000000     -30.00000000
         -30.00000000     -30.00000000     -30.00000000     -30.00000000     -30.00000000     -30.00000000     -30.00000000     -30.00000000     -30.00000000     -30.00000000     -30.00000000     -30.00000000     -30.00000000     -30.00000000     -30.00000000     -30.00000000     -30.00000000     -30.00000000     -30.00000000     -30.00000000
         -30.00000000     -30.00000000     -30.00000000     -30.00000000     -30.00000000     -30.00000000     -30.00000000     -30.00000000     -30.00000000     -30.00000000     -30.00000000     -30.00000000     -30.00000000     -30.00000000     -30.00000000     -30.00000000     -30.00000000     -30.00000000     -30.00000000     -30.00000000
         -30.00000000     -30.00000000     -30.00000000     -30.00000000     -30.00000000     -30.00000000     -30.00000000     -30.00000000     -30.00000000     -30.00000000     -30.00000000     -30.00000000     -30.00000000     -30.00000000     -30.00000000     -30.00000000     -30.00000000     -30.00000000     -30.00000000     -30.00000000
         -30.00000000     -30.00000000     -30.00000000     -30.00000000     -30.00000000     -30.00000000     -30.00000000     -30.00000000     -30.00000000     -30.00000000     -30.00000000     -30.00000000     -30.00000000     -30.00000000     -30.00000000     -30.00000000     -30.00000000     -30.00000000     -30.00000000     -30.00000000
         -30.00000000     -30.00000000     -30.00000000     -30.00000000     -30.00000000     -30.00000000     -30.00000000     -30.00000000     -30.00000000     -30.00000000     -30.00000000     -30.00000000     -30.00000000     -30.00000000     -30.00000000     -30.00000000     -30.00000000     -30.00000000     -30.00000000     -30.00000000
         -30.00000000     -30.00000000     -30.00000000     -30.00000000     -30.00000000     -30.00000000     -30.00000000     -30.00000000     -30.00000000     -30.00000000     -30.00000000     -30.00000000     -30.00000000     -30.00000000     -30.00000000     -30.00000000     -30.00000000     -30.00000000     -30.00000000     -30.00000000
         -30.00000000     -30.00000000     -30.00000000     -30.00000000     -30.00000000     -30.00000000     -30.00000000     -30.00000000     -30.00000000     -30.00000000     -30.00000000     -30.00000000     -30.00000000     -30.00000000     -30.00000000     -30.00000000     -30.00000000     -30.00000000     -30.00000000     -30.00000000
         -30.00000000     -30.00000000     -30.00000000     -30.00000000     -30.00000000     -30.00000000     -30.00000000     -30.00000000     -30.00000000     -30.00000000     -30.00000000     -30.00000000     -30.00000000     -30.00000000     -30.00000000     -30.00000000     -30.00000000     -30.00000000     -30.00000000     -30.00000000
         -30.00000000     -30.00000000     -30.00000000     -30.00000000     -30.00000000     -30.00000000     -30.00000000     -30.00000000     -30.00000000     -30.00000000     -30.00000000     -30.00000000     -30.00000000     -30.00000000     -30.00000000     -30.00000000     -30.00000000     -30.00000000     -30.00000000     -30.00000000
         -30.00000000     -30.00000000     -30.00000000     -30.00000000     -30.00000000     -30.00000000     -30.00000000     -30.00000000     -30.00000000     -30.00000000     -30.00000000     -30.00000000     -30.00000000     -30.00000000     -30.00000000     -30.00000000     -30.00000000     -30.00000000     -30.00000000     -30.00000000
         -30.00000000     -30.00000000     -30.00000000     -30.00000000     -30.00000000     -30.00000000     -30.00000000     -30.00000000     -30.00000000     -30.00000000     -30.00000000     -30.00000000     -30.00000000     -30.00000000     -30.00000000     -30.00000000     -30.00000000     -30.00000000     -30.00000000     -30.00000000
         -30.00000000     -30.00000000     -30.00000000     -30.00000000     -30.00000000     -30.00000000     -30.00000000     -30.00000000     -30.00000000     -30.00000000     -30.00000000     -30.00000000     -30.00000000     -30.00000000     -30.00000000     -30.00000000     -30.00000000     -30.00000000     -30.00000000     -30.00000000
         -30.00000000     -30.00000000     -30.00000000     -30.00000000     -30.00000000     -30.00000000     -30.00000000     -30.00000000     -30.00000000     -30.00000000     -30.00000000     -30.00000000     -30.00000000     -30.00000000     -30.00000000     -30.00000000     -30.00000000     -30.00000000     -30.00000000     -30.00000000
         -30.00000000     -30.00000000     -30.00000000     -30.00000000     -30.00000000     -30.00000000     -30.00000000     -30.00000000     -30.00000000     -30.00000000     -30.00000000     -30.00000000     -30.00000000     -30.00000000     -30.00000000     -30.00000000     -30.00000000     -30.00000000     -30.00000000     -30.00000000
         -30.00000000     -30.00000000     -30.00000000     -30.00000000     -30.00000000     -30.00000000     -30.00000000     -30.00000000     -30.00000000     -30.00000000     -30.00000000     -30.00000000     -30.00000000     -30.00000000     -30.00000000     -30.00000000     -30.00000000     -30.00000000     -30.00000000     -30.00000000
         -30.00000000     -30.00000000     -30.00000000     -30.00000000     -30.00000000     -30.00000000     -30.00000000     -30.00000000     -30.00000000     -30.00000000     -30.00000000     -30.00000000     -30.00000000     -30.00000000     -30.00000000     -30.00000000     -30.00000000     -30.00000000     -30.00000000     -30.00000000