# File generated by Flopy version 3.10.0 on 03/30/2026 at 14:30:31.
BEGIN options
  XT3D
  SAVE_SPECIFIC_DISCHARGE
END options

BEGIN griddata
  icelltype
    CONSTANT  0
  k
    CONSTANT  9.81000000E-06
  k22
    CONSTANT  4.90500000E-06
  k33
    CONSTANT  9.81000000E-07
  angle1
    CONSTANT      45.00000000
END griddata

