# File generated by Flopy version 3.10.0 on 03/30/2026 at 14:30:31.
BEGIN options
END options

BEGIN griddata
  strt
    CONSTANT      10.00000000
END griddata

