# File generated by Flopy version 3.10.0 on 03/30/2026 at 14:30:31.
BEGIN options
  TIME_UNITS  days
END options

BEGIN dimensions
  NPER  1
END dimensions

BEGIN perioddata
       1.00000000  1       1.00000000
END perioddata

