# File generated by Flopy version 3.10.0 on 03/30/2026 at 14:30:31.
BEGIN options
  COMPLEXITY  simple
END options

BEGIN linear
  LINEAR_ACCELERATION  bicgstab
END linear

