# File generated by Flopy version 3.10.0 on 03/30/2026 at 14:30:31.
BEGIN options
END options

BEGIN timing
  TDIS6  cube.tdis
END timing

BEGIN models
  gwf6  cube.nam  cube
END models

BEGIN exchanges
END exchanges

BEGIN solutiongroup  1
  ims6  cube.ims  cube
END solutiongroup  1

